LAMMPS (7 Aug 2019)
# THIS IS A LAMMPS FILE TO GENERATE STAR UNDER AMBIENT CONIDTIONS
# phase 2: deforming to adjust density to desired (often close to experimental) value

#molecule       	STAR infiles/UA.MG.STAR.txt
#atom_style     	template STAR

atom_style	molecular

variable	scalefactor equal 1.003023956

variable       	Nmol equal 125
variable       	eqmT equal 311
variable       	eqmP equal 0.987	# in atm; note 0.1MPa = 0.987 atm
variable       	Pout equal 0.1		# in MPa

variable        pxx equal pxx
variable        pyy equal pyy
variable        pzz equal pzz
variable        pxy equal pxy
variable        pxz equal pxz
variable        pyz equal pyz
variable	a equal cella
variable 	b equal cellb
variable 	c equal cellc
variable 	rho equal density
variable 	vol equal vol
variable 	etotal equal etotal

read_restart	restart_files/star.gphase1.*	# note that this sample was produced in phase 1
  restoring atom style molecular from restart
  triclinic box = (112.455 112.455 112.455) to (157.545 157.545 157.545) with tilt (0 0 0)
  restoring pair style lj/cut from restart
  restoring bond style harmonic from restart
  restoring angle style harmonic from restart
  restoring dihedral style multi/harmonic from restart
  restoring improper style harmonic from restart
  3125 atoms
  3000 bonds
  3000 angles
  3000 dihedrals
  125 impropers
  read_restart CPU = 0.096808 secs
neighbor       	0.3 bin
neigh_modify   	every 1 delay 0 check yes

# from Mondello & Grest (1995) JCP 103, 7156: model A
# from Moore et al (Cummings group) (2000) JCP 113, 8833
mass           	1 14.026	# CH2
mass           	2 15.034	# CH3
mass           	3 13.018	# CH

pair_style     	lj/cut 10			# MG do not say if cutoffs obey BL rules
pair_modify    	shift yes			# MG do not really mention if LJ is shifted in their above cited paper, they do so in a follow-up paper.
special_bonds  	lj 0.0 0.0 0.0

bond_style     	harmonic
angle_style    	harmonic
dihedral_style 	multi/harmonic
improper_style	harmonic

pair_coeff     	1 1 0.093 3.93 10
pair_coeff     	1 2 0.145 3.93 10
pair_coeff     	1 3 0.086 3.87 10
pair_coeff     	2 2 0.227 3.93 10
pair_coeff     	2 3 0.134 3.87 10
pair_coeff     	3 3 0.080 3.81 10

bond_coeff      1 448.126 1.54
angle_coeff     1 62.14 114
dihedral_coeff 	1 2.007 -4.012 0.271 6.290 0
dihedral_coeff 	2 0.814 -1.792 0.389 3.673 0
improper_coeff	1 40 27.25

timestep       	1

fix	       	ensemble all nve
fix 		thermostat all langevin 311 311 100.0 39847
fix		compress all deform 1 x scale 1.003023956 y scale 1.003023956 z scale 1.003023956
  fix style: deform, fix ID: compress
fix		output_pressure all ave/time 10 100 1000 v_pxx v_pyy v_pzz v_pxy v_pxz v_pyz c_thermo_press ave one file outfiles/pressure.tensor.out
fix 		state_variables all ave/time 10 100 1000 c_thermo_temp v_vol v_rho v_etotal v_a v_b v_c ave one file outfiles/state.variables.out
thermo         	1000
thermo_style   	custom step temp vol press density pe etotal
dump           	gphase2 all atom 10000 outfiles/dumpgphase2.atom	# about 10 MB movie will be generated, change the 10000 to something else if smaller size is needed
dump_modify    	gphase2 first yes
dump_modify    	gphase2 scale no
run            	1000000	# this process of compressing to adjust to the final density is performed slowly so as to not "shock" the system
All restart file global fix info was re-assigned
  update every 1 steps, delay 0 steps, check yes
Step Temp Volume Press Density PotEng TotEng
10000264    311.42118    91672.844    21.656096   0.79851294   -964.47395    1935.4958
Averages over the last 501 of 1002 rows, steps 10501000 to 11000264:
Temp Volume Press Density PotEng TotEng
311.288 92298.7 388.654 0.7931 -905.774 1992.96
Loop time of 209.588 on 192 procs for 1000000 steps with 3125 atoms

undump         	gphase2
write_restart  	restart_files/star.gphase2.*
unfix		ensemble
unfix 		thermostat
unfix		compress

#### NEW NVT SIMULATION
fix		diffuse all nvt temp 311 311 100.0
thermo		10000
thermo_style   	custom step temp vol press density pe etotal
run		5000000		# 5 nanoseconds
Step Temp Volume Press Density PotEng TotEng
11000264    312.42729    92507.006    117.58723   0.79131253   -930.21888    1979.1199
Averages over the last 251 of 502 rows, steps 13510000 to 16000264:
Temp Volume Press Density PotEng TotEng
310.946 92507 290.422 0.791313 -886.162 2009.38
Loop time of 1076.96 on 192 procs for 5000000 steps with 3125 atoms

thermo		10000
run		50000000	# 50 nanoseconds
Step Temp Volume Press Density PotEng TotEng
16000264    310.83817    92507.006    634.36223   0.79131253   -817.20574     2077.335
Averages over the last 2501 of 5002 rows, steps 41010000 to 66000264:
Temp Volume Press Density PotEng TotEng
311.142 92507 319.448 0.791313 -892.717 2004.65
Loop time of 10765 on 192 procs for 50000000 steps with 3125 atoms

thermo		10000
run		50000000	# 50 nanoseconds
Step Temp Volume Press Density PotEng TotEng
66000264    316.63266    92507.006    354.58518   0.79131253   -880.73215    2067.7672
Averages over the last 2501 of 5002 rows, steps 91010000 to 116000264:
Temp Volume Press Density PotEng TotEng
311.195 92507 320.973 0.791313 -890.502 2007.36
Loop time of 10764.1 on 192 procs for 50000000 steps with 3125 atoms

unfix		diffuse

####

# do a npt simulation
# set the desired pressure & compute average density at that pressure

fix 		barostat all npt temp 311 311 100.0 iso 0.987 0.987 1000.0
fix 		dave all ave/time 10 100 1000 v_rho ave running file outfiles/eqm.density.out
thermo		10000
thermo_style   	custom step temp vol press density pe etotal
run		1000000		# 1 nanoseconds
Step Temp Volume Press Density PotEng TotEng
116000264    304.97976    92507.006    1016.1113   0.79131253   -889.58349    1950.4035
Averages over the last 51 of 102 rows, steps 116510000 to 117000264:
Temp Volume Press Density PotEng TotEng
311.081 95936.6 -10.0589 0.763081 -776.962 2119.84
Loop time of 249.221 on 192 procs for 1000000 steps with 3125 atoms

unfix		barostat
write_restart  	restart_files/star.barostat.*

# find the adjustment factor needed to bring rho to the new average rho (target)
variable        averho equal f_dave
variable        adjustrho equal (0.758591247208575/0.764204946817557)^(1.0/3.0)

# adjusting to the average rho; pressure would change (slightly)
fix             ensemble all nve
fix             thermostat all langevin 311 311 100.0 39847
fix             adjust all deform 1 x scale 0.997545378493518 y scale 0.997545378493518 z scale 0.997545378493518
thermo          10000
thermo_style    custom step temp vol press density pe etotal
run             1000000		# 1 nanoseconds
Step Temp Volume Press Density PotEng TotEng
117000264    314.91263    96497.228     295.7603   0.75859125   -792.90627     2139.576
Averages over the last 51 of 102 rows, steps 117510000 to 118000264:
Temp Volume Press Density PotEng TotEng
311.402 95958.5 46.508 0.762851 -765.193 2134.6
Loop time of 207.376 on 192 procs for 1000000 steps with 3125 atoms

unfix           ensemble
unfix           thermostat
unfix           adjust

write_restart   restart_files/star.T311K.P0.1MPa.*

#shell		sh cleanlog.sh	# a script I wrote to clean the log.lammps file into just the thermodynamics data. commented out
