LAMMPS (7 Aug 2019)
# THIS IS A LAMMPS FILE TO GENERATE SQL UNDER AMBIENT CONIDTIONS
# phase 2: deforming to adjust density to desired (often close to experimental) value

#molecule       	SQL infiles/UA.MG.SQL.txt
#atom_style     	template SQL

atom_style	molecular

variable	scalefactor equal 0.99193803117

variable       	Nmol equal 125
variable       	eqmT equal 293
variable       	eqmP equal 0.987	# in atm; note 0.1MPa = 0.987 atm
variable       	Pout equal 0.1		# in MPa

variable        pxx equal pxx
variable        pyy equal pyy
variable        pzz equal pzz
variable        pxy equal pxy
variable        pxz equal pxz
variable        pyz equal pyz
variable	a equal cella
variable 	b equal cellb
variable 	c equal cellc
variable 	rho equal density
variable 	vol equal vol
variable 	etotal equal etotal

read_restart	restart_files/sql.gphase1.*	# note that this sample was produced in phase 1
  restoring atom style molecular from restart
  triclinic box = (110.97 110.97 110.97) to (159.03 159.03 159.03) with tilt (0 0 0)
  restoring pair style lj/cut from restart
  restoring bond style harmonic from restart
  restoring angle style harmonic from restart
  restoring dihedral style multi/harmonic from restart
  restoring improper style harmonic from restart
  3750 atoms
  3625 bonds
  4250 angles
  3875 dihedrals
  750 impropers
  read_restart CPU = 0.111385 secs
neighbor       	0.3 bin
neigh_modify   	every 1 delay 0 check yes

# from Mondello & Grest (1995) JCP 103, 7156: model A
# from Moore et al (Cummings group) (2000) JCP 113, 8833
mass           	1 14.026
mass           	2 15.034
mass           	3 15.034
mass           	4 13.018

pair_style     	lj/cut 10			# MG do not say if cutoffs obey BL rules
pair_modify    	shift yes			# MG do not really mention if LJ is shifted in their above cited paper, they do so in a follow-up paper.
special_bonds  	lj 0.0 0.0 0.0

bond_style     	harmonic
angle_style    	harmonic
dihedral_style 	multi/harmonic
improper_style	harmonic

pair_coeff     	1 1 0.093 3.93 10
pair_coeff     	1 2 0.145 3.93 10
pair_coeff     	1 3 0.145 3.93 10
pair_coeff     	1 4 0.086 3.87 10
pair_coeff     	2 2 0.227 3.93 10
pair_coeff     	2 3 0.227 3.93 10
pair_coeff     	2 4 0.134 3.87 10
pair_coeff     	3 3 0.227 3.93 10
pair_coeff     	3 4 0.134 3.87 10
pair_coeff     	4 4 0.080 3.81 10

bond_coeff      1 448.126 1.54
angle_coeff     1 62.14 114
dihedral_coeff 	1 2.007 -4.012 0.271 6.290 0
dihedral_coeff 	2 0.814 -1.792 0.389 3.673 0
improper_coeff	1 40 27.25

timestep       	1

fix	       	ensemble all nve
fix 		thermostat all langevin 293 293 100.0 39847
fix		compress all deform 1 x scale 0.99193803117 y scale 0.99193803117 z scale 0.99193803117
  fix style: deform, fix ID: compress
fix		output_pressure all ave/time 10 100 1000 v_pxx v_pyy v_pzz v_pxy v_pxz v_pyz c_thermo_press ave one file outfiles/pressure.tensor.out
fix 		state_variables all ave/time 10 100 1000 c_thermo_temp v_vol v_rho v_etotal v_a v_b v_c ave one file outfiles/state.variables.out
thermo         	1000
thermo_style   	custom step temp vol press density pe etotal
dump           	gphase2 all atom 10000 outfiles/dumpgphase2.atom	# about 10 MB movie will be generated, change the 10000 to something else if smaller size is needed
dump_modify    	gphase2 first yes
dump_modify    	gphase2 scale no
run            	1000000	# this process of compressing to adjust to the final density is performed slowly so as to not "shock" the system
All restart file global fix info was re-assigned
  update every 1 steps, delay 0 steps, check yes
Step Temp Volume Press Density PotEng TotEng
10000481    290.89925    111007.24    1201.0545   0.79056693   -751.69584    2499.1199
Averages over the last 501 of 1002 rows, steps 10501000 to 11000481:
Temp Volume Press Density PotEng TotEng
293.095 109005 -125.116 0.805099 -747.846 2527.5
Loop time of 276.226 on 96 procs for 1000000 steps with 3750 atoms

undump         	gphase2
write_restart  	restart_files/sql.gphase2.*
unfix		ensemble
unfix 		thermostat
unfix		compress

#### NEW NVT SIMULATION
fix             diffuse all nvt temp 293 293 100.0
thermo		10000
thermo_style   	custom step temp vol press density pe etotal
run		5000000		# 5 nanoseconds
Step Temp Volume Press Density PotEng TotEng
11000481    295.79556    108344.01   -867.98857         0.81   -772.10152    2533.4307
Averages over the last 251 of 502 rows, steps 13510000 to 16000481:
Temp Volume Press Density PotEng TotEng
292.745 108344 -163.318 0.81 -832.327 2439.12
Loop time of 1386.33 on 96 procs for 5000000 steps with 3750 atoms

thermo		10000
run		50000000	# 50 nanoseconds
Step Temp Volume Press Density PotEng TotEng
16000481    298.84626    108344.01    765.58897         0.81   -836.70797     2502.916
Averages over the last 2501 of 5002 rows, steps 41010000 to 66000481:
Temp Volume Press Density PotEng TotEng
292.937 108344 -122.065 0.81 -843.458 2430.13
Loop time of 14102.7 on 96 procs for 50000000 steps with 3750 atoms

thermo		10000
run		50000000	# 50 nanoseconds
Step Temp Volume Press Density PotEng TotEng
66000481    292.14599    108344.01   -128.82957         0.81   -825.79434    2438.9538
Averages over the last 2501 of 5002 rows, steps 91010000 to 116000481:
Temp Volume Press Density PotEng TotEng
292.852 108344 -114.334 0.81 -842.335 2430.31
Loop time of 13937.1 on 96 procs for 50000000 steps with 3750 atoms

####

# do a npt simulation
# set the desired pressure & compute average density at that pressure

fix 		barostat all npt temp 293 293 100.0 iso 0.987 0.987 1000.0
fix 		dave all ave/time 10 100 1000 v_rho ave running file outfiles/eqm.density.out
thermo		10000
thermo_style   	custom step temp vol press density pe etotal
run		1000000		# 1 nanoseconds
Step Temp Volume Press Density PotEng TotEng
116000481    293.01337    108344.01   -748.11708         0.81     -952.021    2322.4201
Averages over the last 51 of 102 rows, steps 116510000 to 117000481:
Temp Volume Press Density PotEng TotEng
872.339 97478.3 217.488 0.900289 5838.38 15586.8
Loop time of 433.895 on 96 procs for 1000000 steps with 3750 atoms

unfix		barostat
write_restart  	restart_files/sql.barostat.*

# find the adjustment factor needed to bring rho to the new average rho (target)
variable        averho equal f_dave
variable        adjustrho equal (0.90029884095515/0.90025680806668)^(1.0/3.0)

# adjusting to the average rho; pressure would change (slightly)
fix             ensemble all nve
fix             thermostat all langevin 293 293 100.0 39847
fix             adjust all deform 1 x scale 1.00001556305339 y scale 1.00001556305339 z scale 1.00001556305339
thermo          10000
thermo_style    custom step temp vol press density pe etotal
run             1000000		# 1 nanoseconds
Step Temp Volume Press Density PotEng TotEng
117000481     1334.291    97477.246    6298.6141   0.90029884   -727.06331    14183.715
Averages over the last 51 of 102 rows, steps 117510000 to 118000481:
Temp Volume Press Density PotEng TotEng
873.658 97480.7 1998.2 0.900267 5583.12 15346.3
Loop time of 499.536 on 96 procs for 1000000 steps with 3750 atoms

unfix           ensemble
unfix           thermostat
unfix           adjust

write_restart   restart_files/sql.T293K.P0.1MPa.*

#shell		sh cleanlog.sh	# a script I wrote to clean the log.lammps file into just the thermodynamics data. commented out
